*Heading
** Job name: Job-2 Model name: Model-1
** Generated by: Abaqus/CAE 6.14-1
*Preprint, echo=NO, model=NO, history=NO, contact=NO
**
** PARTS
**
*Part, name=FOUNDATION
*Node
      1,           9.,           0.,          10.
      2,           9.,           0.,           9.
      3,          10.,           0.,           9.
      4,          10.,           0.,          10.
      5,           9.,           4.,          10.
      6,           9.,           4.,           9.
      7,          10.,           4.,           9.
      8,          10.,           4.,          10.
      9,           1.,           4.,          10.
     10,           1.,           4.,           9.
     11,           9.,           5.,          10.
     12,           1.,           5.,          10.
     13,           1.,           5.,           9.
     14,           9.,           5.,           9.
     15,           9.,           5.,           0.
     16,          10.,           5.,           9.
     17,          10.,           5.,           0.
     18,          10.,           4.,           0.
     19,           9.,           4.,           0.
     20,           1.,           4.,           0.
** ... 454 like lines cut
*Element, type=C3D8
1, 42, 46, 45, 37,  1,  2,  3,  4
2, 41, 47, 44, 38, 42, 46, 45, 37
3, 40, 48, 43, 39, 41, 47, 44, 38
4,  5,  6,  7,  8, 40, 48, 43, 39
 5, 14, 11, 69, 70,  6,  5, 49, 62
 6, 70, 69, 68, 71, 62, 49, 50, 61
 7, 71, 68, 67, 72, 61, 50, 51, 60
 8, 72, 67, 66, 73, 60, 51, 52, 59
 9, 73, 66, 65, 74, 59, 52, 53, 58
10, 74, 65, 64, 75, 58, 53, 54, 57
11, 75, 64, 63, 76, 57, 54, 55, 56
12, 76, 63, 12, 13, 56, 55,  9, 10
13,  19, 100, 101,  18,  15,  77,  92,  17
14, 100,  99, 102, 101,  77,  78,  91,  92
15,  99,  98, 103, 102,  78,  79,  90,  91
16,  98,  97, 104, 103,  79,  80,  89,  90
17,  97,  96, 105, 104,  80,  81,  88,  89
18,  96,  95, 106, 105,  81,  82,  87,  88
19,  95,  94, 107, 106,  82,  83,  86,  87
20,  94,  93, 108, 107,  83,  84,  85,  86
** ... 192 like lines cut
*Nset, nset=Set-F-B-Y
   1,   2,   3,   4,  22,  23,  25,  27,  32,  33,  34,  35, 162, 163, 164, 165
 166, 167, 168, 169, 173, 174, 175, 176, 177, 178, 179, 180, 181, 182, 183, 184
 185, 186, 187, 188, 189, 190, 191, 192, 193, 194, 201, 202, 203, 204, 205, 206
 207, 208, 209, 210, 211, 212, 213, 214, 215, 216
*Elset, elset=Set-F-B-Y
   1,  94, 100, 104, 108, 112, 116, 120, 124, 128, 132, 139, 143, 147, 151, 155
 159, 163, 167, 171, 175, 179, 183, 187, 191, 195, 199, 203
*Nset, nset=Set-F-Z-LINE
   3,   4,  34, 209, 210, 211, 212, 213, 214, 215, 216
*Elset, elset=Set-F-Z-LINE
   1, 171, 175, 179, 183, 187, 191, 195, 199, 203
*Nset, nset=Set-F-YOU-W
   3,   4,   7,   8,  16,  17,  18,  28,  34,  37,  38,  39,  43,  44,  45,  85
  86,  87,  88,  89,  90,  91,  92, 101, 102, 103, 104, 105, 106, 107, 108, 195
 196, 197, 209, 210, 211, 212, 213, 214, 215, 216, 451, 452, 453, 454, 455, 456
 457, 458, 459, 460, 461, 462, 463, 464, 465, 466, 467, 468, 469, 470, 471, 472
 473, 474
*Elset, elset=Set-F-YOU-W
   1,   2,   3,   4,  13,  14,  15,  16,  17,  18,  19,  20,  21,  98, 168, 169
 170, 171, 172, 173, 174, 175, 176, 177, 178, 179, 180, 181, 182, 183, 184, 185
 186, 187, 188, 189, 190, 191, 192, 193, 194, 195, 196, 197, 198, 199, 200, 201
 202, 203
*Nset, nset=Set-F-YOU-N
   2,   6,  19,  35,  46,  47,  48,  93,  94,  95,  96,  97,  98,  99, 100, 198
 199, 200, 201, 202, 203, 204, 205, 206, 207, 208, 427, 428, 429, 430, 431, 432
 433, 434, 435, 436, 437, 438, 439, 440, 441, 442, 443, 444, 445, 446, 447, 448
 449, 450
*Elset, elset=Set-F-YOU-N, generate
 168,  203,    1
*Nset, nset=Set-F-ZHONG-N
   6,  10,  19,  20,  56,  57,  58,  59,  60,  61,  62,  93,  94,  95,  96,  97
  98,  99, 100, 109, 110, 111, 112, 113, 114, 115, 116, 117, 118, 119, 120, 121
 122, 123, 225, 226, 227, 228, 229, 230, 231, 232, 233, 234, 235, 236, 237, 238
 239, 240, 241, 242, 243, 244, 245, 246, 247, 248, 249, 250, 251, 252, 253, 254
 255, 256, 257, 258, 259, 260, 261, 262, 263, 264, 265, 266, 267, 268, 269, 270
 271, 272, 273, 274, 275, 276, 277, 278, 279, 280
*Elset, elset=Set-F-ZHONG-N, generate
 22,  93,   1
*Nset, nset=Set-F-ZHONG-W
  11,  12,  13,  14,  15,  16,  17,  21,  28,  29,  30,  36,  63,  64,  65,  66
  67,  68,  69,  70,  71,  72,  73,  74,  75,  76,  77,  78,  79,  80,  81,  82
  83,  84,  85,  86,  87,  88,  89,  90,  91,  92, 124, 125, 126, 127, 128, 129
 130, 131, 132, 133, 134, 135, 136, 137, 138, 217, 218, 219, 220, 221, 222, 223
 224, 281, 282, 283, 284, 285, 286, 287, 288, 289, 290, 291, 292, 293, 294, 295
 296, 297, 298, 299, 300, 301, 302, 303, 304, 305, 306, 307, 308, 309, 310, 311
 312, 313, 314, 315, 316, 317, 318, 319, 320, 321, 322, 323, 324, 325, 326, 327
 328, 329, 330, 331, 332, 333, 334, 335, 336
*Elset, elset=Set-F-ZHONG-W
   5,   6,   7,   8,   9,  10,  11,  12,  13,  14,  15,  16,  17,  18,  19,  20
  21,  22,  23,  24,  25,  26,  27,  28,  29,  30,  31,  32,  33,  34,  35,  36
  37,  38,  39,  40,  41,  42,  43,  44,  45,  46,  47,  48,  49,  50,  51,  52
  53,  54,  55,  56,  57,  58,  59,  60,  61,  62,  63,  64,  65,  66,  67,  68
  69,  70,  71,  72,  73,  74,  75,  76,  77,  78,  79,  80,  81,  82,  83,  84
  85,  86,  87,  88,  89,  90,  91,  92,  93,  98,  99, 204, 205, 206, 207, 208
 209, 210, 211, 212
*Nset, nset=Set-F-ZUO-N
  10,  20,  22,  33, 109, 110, 111, 112, 113, 114, 115, 116, 142, 143, 144, 170
 171, 172, 173, 174, 175, 176, 177, 178, 179, 180, 361, 362, 363, 364, 365, 366
 367, 368, 369, 370, 371, 372, 373, 374, 375, 376, 377, 378, 379, 380, 381, 382
 383, 384
*Elset, elset=Set-F-ZUO-N, generate
 100,  135,    1
*Nset, nset=Set-F-ZUO-W
  23,  24,  25,  26,  29,  30,  31,  32,  36, 139, 140, 141, 145, 146, 147, 151
 152, 153, 154, 155, 156, 157, 158, 159, 160, 161, 162, 163, 164, 165, 166, 167
 168, 169, 217, 218, 219, 220, 221, 222, 223, 224, 337, 338, 339, 340, 341, 342
 343, 344, 345, 346, 347, 348, 349, 350, 351, 352, 353, 354, 355, 356, 357, 358
 359, 360
*Elset, elset=Set-F-ZUO-W
  94,  95,  96,  97,  99, 100, 101, 102, 103, 104, 105, 106, 107, 108, 109, 110
 111, 112, 113, 114, 115, 116, 117, 118, 119, 120, 121, 122, 123, 124, 125, 126
 127, 128, 129, 130, 131, 132, 133, 134, 135, 204, 205, 206, 207, 208, 209, 210
 211, 212
*Nset, nset=Set-F-D-YOU
  18,  19,  34,  35, 195, 196, 197, 198, 199, 200
*Elset, elset=Set-F-D-YOU, generate
 168,  171,    1
*Nset, nset=Set-F-D-ZUO
  20,  31,  32,  33, 159, 160, 161, 170, 171, 172
*Elset, elset=Set-F-D-ZUO, generate
 132,  135,    1
*Nset, nset=Set-F-D-ZHONG
  15,  17,  18,  19,  20,  21,  31,  36, 117, 118, 119, 120, 121, 122, 123, 132
 133, 134, 135, 136, 137, 138
*Elset, elset=Set-F-D-ZHONG
  13,  86,  87,  88,  89,  90,  91,  92,  93, 212
*Nset, nset=_PickedSet20, internal, generate
   1,  474,    1
*Elset, elset=_PickedSet20, internal, generate
   1,  212,    1
*Nset, nset=Set-FOUNDATION, generate
   1,  474,    1
*Elset, elset=Set-FOUNDATION, generate
   1,  212,    1
*Elset, elset=_Surf-F-D_S5, internal
  86,  87,  88,  89,  90,  91,  92,  93, 132, 133, 134, 135, 212
*Elset, elset=_Surf-F-D_S2, internal, generate
 168,  171,    1
*Elset, elset=_Surf-F-D_S6, internal
 13,
*Surface, type=ELEMENT, name=Surf-F-D
_Surf-F-D_S5, S5
_Surf-F-D_S2, S2
_Surf-F-D_S6, S6
*Elset, elset=_Surf-F-UP_S5, internal, generate
 136,  167,    1
*Surface, type=ELEMENT, name=Surf-F-UP
_Surf-F-UP_S5, S5
*Elset, elset=_Surf-F-N_S1, internal, generate
 100,  135,    1
*Elset, elset=_Surf-F-N_S2, internal, generate
 22,  93,   1
*Elset, elset=_Surf-F-N_S6, internal, generate
 168,  203,    1
*Surface, type=ELEMENT, name=Surf-F-N
_Surf-F-N_S1, S1
_Surf-F-N_S2, S2
_Surf-F-N_S6, S6
*Elset, elset=_Surf-F-W_S2, internal
  13,  14,  15,  16,  17,  18,  19,  20,  21, 100, 101, 102, 103, 104, 105, 106
 107, 108, 109, 110, 111, 112, 113, 114, 115, 116, 117, 118, 119, 120, 121, 122
 123, 124, 125, 126, 127, 128, 129, 130, 131, 132, 133, 134, 135, 204, 205, 206
 207, 208, 209, 210, 211, 212
*Elset, elset=_Surf-F-W_S1, internal
  5,  6,  7,  8,  9, 10, 11, 12, 22, 23, 24, 25, 26, 27, 28, 29
 30, 31, 32, 33, 34, 35, 36, 37, 38, 39, 40, 41, 42, 43, 44, 45
 46, 47, 48, 49, 50, 51, 52, 53, 54, 55, 56, 57, 58, 59, 60, 61
 62, 63, 64, 65, 66, 67, 68, 69, 70, 71, 72, 73, 74, 75, 76, 77
 78, 79, 80, 81, 82, 83, 84, 85, 86, 87, 88, 89, 90, 91, 92, 93
 98, 99
*Elset, elset=_Surf-F-W_S4, internal
  94,  95,  96,  97, 168, 169, 170, 171, 172, 173, 174, 175, 176, 177, 178, 179
 180, 181, 182, 183, 184, 185, 186, 187, 188, 189, 190, 191, 192, 193, 194, 195
 196, 197, 198, 199, 200, 201, 202, 203, 204, 205, 206, 207, 208, 209, 210, 211
 212,
*Elset, elset=_Surf-F-W_S5, internal
  1,  2,  3,  4, 13, 14, 15, 16, 17, 18, 19, 20, 21, 98, 99
*Surface, type=ELEMENT, name=Surf-F-W
_Surf-F-W_S2, S2
_Surf-F-W_S1, S1
_Surf-F-W_S4, S4
_Surf-F-W_S5, S5
** Section: Section-2FOUNDATION
*Solid Section, elset=_PickedSet20, material=Material-2FOUNDATION
,
*End Part
**  
*Part, name=SOIL
*Node
      1,         110.,          55.,          50.
      2,         110.,           5.,          50.
      3,         110.,           5.,           0.
      4,         110.,          55.,           0.
      5,          60.,           5.,          50.
      6,          60.,           5.,           0.
      7,          60.,          55.,           0.
      8,          60.,          55.,          50.
      9,          51.,           4.,           0.
     10,          51.,           4.,          50.
     11,          59.,           4.,          50.
     12,          59.,           4.,           0.
     13,          51.,           0.,          50.
     14,          59.,           0.,          50.
     15,          59.,           0.,           0.
     16,          51.,           0.,           0.
     17,          50.,           4.,          60.
     18,          50.,           4.,          50.
     19,          50.,           5.,          59.
     20,          50.,           5.,          50.
** ... 19435 like lines cut
*Element, type=C3D8
   1,   206,  1957,  7861,  1619,     1,    77,  1281,   128
   2,  1957,  1958,  7862,  7861,    77,    78,  1282,  1281
   3,  1958,  1959,  7863,  7862,    78,    79,  1283,  1282
   4,  1959,  1960,  7864,  7863,    79,    80,  1284,  1283
   5,  1960,  1961,  7865,  7864,    80,    81,  1285,  1284
   6,  1961,  1962,  7866,  7865,    81,    82,  1286,  1285
   7,  1962,  1963,  7867,  7866,    82,    83,  1287,  1286
   8,  1963,  1964,  7868,  7867,    83,    84,  1288,  1287
   9,  1964,  1965,  7869,  7868,    84,    85,  1289,  1288
  10,  1965,  1966,  7870,  7869,    85,    86,  1290,  1289
  11,  1966,  1967,  7871,  7870,    86,    87,  1291,  1290
  12,  1967,  1968,  7872,  7871,    87,    88,  1292,  1291
  13,  1968,  1969,  7873,  7872,    88,    89,  1293,  1292
  14,  1969,   220,  1788,  7873,    89,     2,    90,  1293
  15,  1619,  7861,  7874,  1620,   128,  1281,  1294,   127
  16,  7861,  7862,  7875,  7874,  1281,  1282,  1295,  1294
  17,  7862,  7863,  7876,  7875,  1282,  1283,  1296,  1295
  18,  7863,  7864,  7877,  7876,  1283,  1284,  1297,  1296
  19,  7864,  7865,  7878,  7877,  1284,  1285,  1298,  1297
  20,  7865,  7866,  7879,  7878,  1285,  1286,  1299,  1298
** ... 17096 like lines cut
*Nset, nset=Set-T-B-D
    3,    4,    6,    7,    9,   12,   15,   16,   26,   27,   29,   30,   45,   46,   47,   48
   50,   51,   53,   54,   61,   62,   67,   68,  103,  104,  105,  106,  107,  108,  109,  110
  111,  112,  113,  114,  115,  155,  156,  157,  158,  159,  160,  161,  162,  163,  164,  165
  166,  167,  181,  182,  183,  184,  185,  186,  187,  188,  189,  190,  191,  192,  193,  207
  208,  209,  210,  211,  212,  213,  214,  215,  216,  217,  218,  219,  266,  267,  268,  269
  270,  271,  272,  306,  307,  308,  309,  310,  311,  312,  313,  314,  315,  316,  317,  318
  425,  426,  427,  428,  429,  430,  431,  432,  433,  434,  435,  436,  437,  477,  478,  479
  480,  481,  482,  483,  484,  485,  486,  487,  488,  489,  503,  504,  505,  509,  510,  511
  711,  712,  713,  714,  715,  716,  717,  718,  719,  720,  721,  722,  723,  750,  751,  752
  753,  754,  755,  756,  757,  758,  759,  760,  761,  762,  776,  777,  778,  782,  783,  784
  840,  841,  842,  843,  844,  845,  846,  847,  848,  849,  850,  851,  852,  853,  854,  855
  856,  857,  858,  859,  860,  861,  862,  863,  864,  865, 1008, 1009, 1010, 1011, 1012, 1013
 1014, 1015, 1016, 1017, 1018, 1019, 1020, 1043, 1044, 1045, 1046, 1047, 1048, 1049, 1050, 1051
 1052, 1053, 1054, 1055, 1056, 1106, 1107, 1108, 1109, 1110, 1111, 1112, 1113, 1114, 1115, 1116
 1117, 1118, 1132, 1133, 1134, 1135, 1136, 1137, 1138, 1139, 1140, 1141, 1142, 1143, 1144, 1145
 1146, 1147, 1148, 1149, 1150, 1151, 1152, 1153, 1154, 1155, 1156, 1157, 2126, 2127, 2128, 2129
 2130, 2131, 2132, 2133, 2134, 2135, 2136, 2137, 2138, 2139, 2140, 2141, 2142, 2143, 2144, 2145
 2146, 2147, 2148, 2149, 2150, 2151, 2152, 2153, 2154, 2155, 2156, 2157, 2158, 2159, 2160, 2161
 2162, 2163, 2164, 2165, 2166, 2167, 2168, 2169, 2170, 2171, 2172, 2173, 2174, 2175, 2176, 2177
 2178, 2179, 2180, 2181, 2182, 2183, 2184, 2185, 2186, 2187, 2188, 2189, 2190, 2191, 2192, 2193
** ... 29 like lines cut
*Elset, elset=Set-T-B-D
   183,   184,   185,   186,   187,   188,   189,   190,   191,   192,   193,   194,   195,   196,   379,   380
   381,   382,   383,   384,   385,   386,   387,   388,   389,   390,   391,   392,   575,   576,   577,   578
   579,   580,   581,   582,   583,   584,   585,   586,   587,   588,   771,   772,   773,   774,   775,   776
   777,   778,   779,   780,   781,   782,   783,   784,   967,   968,   969,   970,   971,   972,   973,   974
   975,   976,   977,   978,   979,   980,  1163,  1164,  1165,  1166,  1167,  1168,  1169,  1170,  1171,  1172
  1173,  1174,  1175,  1176,  1359,  1360,  1361,  1362,  1363,  1364,  1365,  1366,  1367,  1368,  1369,  1370
  1371,  1372,  1555,  1556,  1557,  1558,  1559,  1560,  1561,  1562,  1563,  1564,  1565,  1566,  1567,  1568
  1751,  1752,  1753,  1754,  1755,  1756,  1757,  1758,  1759,  1760,  1761,  1762,  1763,  1764,  1947,  1948
  1949,  1950,  1951,  1952,  1953,  1954,  1955,  1956,  1957,  1958,  1959,  1960,  2143,  2144,  2145,  2146
  2147,  2148,  2149,  2150,  2151,  2152,  2153,  2154,  2155,  2156,  2339,  2340,  2341,  2342,  2343,  2344
  2345,  2346,  2347,  2348,  2349,  2350,  2351,  2352,  2535,  2536,  2537,  2538,  2539,  2540,  2541,  2542
  2543,  2544,  2545,  2546,  2547,  2548,  2731,  2732,  2733,  2734,  2735,  2736,  2737,  2738,  2739,  2740
  2741,  2742,  2743,  2744,  2745,  2759,  2773,  2787,  2801,  2815,  2829,  2843,  2857,  2871,  2885,  2899
  2913,  2927,  2941,  2955,  2969,  2983,  2997,  3011,  3025,  3039,  3053,  3067,  3081,  3095,  3109,  3123
  3137,  3151,  3165,  3179,  3515,  3516,  3517,  3518,  3519,  3520,  3521,  3522,  3523,  3524,  3525,  3526
  3527,  3528,  3711,  3712,  3713,  3714,  3715,  3716,  3717,  3718,  3719,  3720,  3721,  3722,  3723,  3724
  3907,  3908,  3909,  3910,  3911,  3912,  3913,  3914,  3915,  3916,  3917,  3918,  3919,  3920,  4103,  4104
  4105,  4106,  4107,  4108,  4109,  4110,  4111,  4112,  4113,  4114,  4115,  4116,  6399,  6400,  6401,  6402
  6403,  6404,  6405,  6406,  6407,  6408,  6409,  6410,  6411,  6412,  6595,  6596,  6597,  6598,  6599,  6600
  6601,  6602,  6603,  6604,  6605,  6606,  6607,  6608,  6791,  6792,  6793,  6794,  6795,  6796,  6797,  6798
** ... 26 like lines cut
*Nset, nset=Set-T-B-X
    1,    2,    3,    4,   22,   23,   24,   25,   27,   30,   31,   34,   35,   36,   37,   38
   43,   46,   48,   65,   67,   68,   69,   76,   77,   78,   79,   80,   81,   82,   83,   84
   85,   86,   87,   88,   89,   90,   91,   92,   93,   94,   95,   96,   97,   98,   99,  100
  101,  102,  103,  104,  105,  106,  107,  108,  109,  110,  111,  112,  113,  114,  115,  116
  117,  118,  119,  120,  121,  122,  123,  124,  125,  126,  127,  128,  342,  343,  344,  345
  346,  347,  348,  349,  350,  351,  352,  353,  354,  355,  356,  357,  358,  359,  438,  439
  440,  441,  442,  443,  444,  445,  446,  447,  448,  449,  450,  490,  491,  492,  493,  494
  495,  496,  497,  498,  499,  500,  501,  502,  503,  504,  505,  506,  507,  508,  550,  551
  552,  553,  554,  555,  556,  557,  558,  559,  560,  561,  562,  563,  564,  565,  566,  567
  568,  569,  570,  571,  572,  573,  574,  575,  576,  577,  578,  579,  580,  581,  582,  583
  584,  611,  612,  613,  614,  615,  616,  617,  618,  619,  620,  621,  622,  623,  624,  625
  626,  627,  628,  724,  725,  726,  727,  728,  729,  730,  731,  732,  733,  734,  735,  736
  763,  764,  765,  766,  767,  768,  769,  770,  771,  772,  773,  774,  775,  776,  777,  778
  779,  780,  781, 1073, 1074, 1075, 1076, 1077, 1078, 1079, 1080, 1081, 1082, 1083, 1084, 1093
 1094, 1095, 1096, 1097, 1098, 1099, 1100, 1101, 1102, 1103, 1104, 1105, 1119, 1120, 1121, 1122
 1123, 1124, 1125, 1126, 1127, 1128, 1129, 1130, 1131, 1145, 1146, 1147, 1148, 1149, 1150, 1151
 1152, 1153, 1154, 1155, 1156, 1157, 1158, 1159, 1160, 1185, 1186, 1187, 1188, 1189, 1190, 1191
 1192, 1193, 1246, 1247, 1248, 1249, 1250, 1251, 1252, 1253, 1254, 1255, 1256, 1257, 1258, 1259
 1260, 1261, 1262, 1263, 1264, 1265, 1266, 1267, 1281, 1282, 1283, 1284, 1285, 1286, 1287, 1288
 1289, 1290, 1291, 1292, 1293, 1294, 1295, 1296, 1297, 1298, 1299, 1300, 1301, 1302, 1303, 1304
** ... 43 like lines cut
*Elset, elset=Set-T-B-X
     1,     2,     3,     4,     5,     6,     7,     8,     9,    10,    11,    12,    13,    14,    15,    16
    17,    18,    19,    20,    21,    22,    23,    24,    25,    26,    27,    28,    29,    30,    31,    32
    33,    34,    35,    36,    37,    38,    39,    40,    41,    42,    43,    44,    45,    46,    47,    48
    49,    50,    51,    52,    53,    54,    55,    56,    57,    58,    59,    60,    61,    62,    63,    64
    65,    66,    67,    68,    69,    70,    71,    72,    73,    74,    75,    76,    77,    78,    79,    80
    81,    82,    83,    84,    85,    86,    87,    88,    89,    90,    91,    92,    93,    94,    95,    96
    97,    98,    99,   100,   101,   102,   103,   104,   105,   106,   107,   108,   109,   110,   111,   112
   113,   114,   115,   116,   117,   118,   119,   120,   121,   122,   123,   124,   125,   126,   127,   128
   129,   130,   131,   132,   133,   134,   135,   136,   137,   138,   139,   140,   141,   142,   143,   144
   145,   146,   147,   148,   149,   150,   151,   152,   153,   154,   155,   156,   157,   158,   159,   160
   161,   162,   163,   164,   165,   166,   167,   168,   169,   170,   171,   172,   173,   174,   175,   176
   177,   178,   179,   180,   181,   182,   183,   184,   185,   186,   187,   188,   189,   190,   191,   192
   193,   194,   195,   196,  3323,  3324,  3325,  3326,  3327,  3328,  3329,  3330,  3331,  3332,  3333,  3347
  3361,  3375,  3389,  3403,  3417,  3431,  3445,  3459,  3473,  3487,  3501,  3515,  3529,  3543,  3557,  3571
  3585,  3599,  3613,  3627,  3641,  3655,  3669,  3683,  3697,  3711,  3725,  3739,  3753,  3767,  3781,  3795
  3809,  3823,  3837,  3851,  3865,  3879,  3893,  3907,  3921,  3935,  3949,  3963,  3977,  3991,  4005,  4019
  4033,  4047,  4061,  4075,  4089,  4103,  4117,  4131,  4145,  4159,  4173,  4187,  4201,  4215,  4229,  4243
  4257,  4271,  4285,  4299,  4313,  4327,  4341,  4355,  4369,  4383,  4397,  4411,  4425,  4439,  4453,  4467
  4481,  4495,  4509,  4523,  4537,  4551,  4565,  4579,  4593,  4607,  4621,  4635,  4649,  4663,  4677,  4691
  4705,  4719,  4733,  4747,  4761,  4775,  4789,  4803,  4817,  4831,  4845,  4859,  4873,  4887,  4901,  4915
** ... 37 like lines cut
*Nset, nset=Set-T-B-Y
    1,    4,    7,    8,   13,   14,   15,   16,   28,   29,   30,   31,   32,   33,   34,   35
   43,   44,   45,   46,   49,   50,   51,   55,   56,   57,   61,   63,   64,   65,   66,   68
   69,   70,   71,   74,   75,   76,  116,  117,  118,  119,  120,  121,  122,  123,  124,  125
  126,  127,  128,  168,  169,  170,  171,  172,  173,  174,  175,  176,  177,  178,  179,  180
  181,  182,  183,  184,  185,  186,  187,  188,  189,  190,  191,  192,  193,  194,  195,  196
  197,  198,  199,  200,  201,  202,  203,  204,  205,  206,  273,  274,  275,  276,  277,  278
  279,  280,  281,  282,  283,  284,  285,  286,  287,  288,  289,  290,  291,  292,  293,  294
  295,  296,  297,  298,  299,  300,  301,  302,  303,  304,  305,  306,  307,  308,  309,  310
  311,  312,  451,  452,  453,  454,  455,  456,  457,  458,  459,  460,  461,  462,  463,  464
  465,  466,  467,  468,  469,  470,  471,  472,  473,  474,  475,  476,  477,  478,  479,  480
  481,  482,  483,  484,  485,  486,  487,  488,  489,  490,  491,  492,  493,  494,  495,  496
  497,  498,  499,  500,  501,  502,  515,  516,  517,  518,  519,  520,  521,  522,  523,  524
  525,  526,  527,  528,  529,  530,  531,  532,  533,  534,  535,  536,  537,  538,  539,  540
  541,  542,  543,  544,  545,  546,  547,  548,  549,  550,  551,  552,  553,  554,  555,  556
  557,  558,  685,  686,  687,  688,  689,  690,  691,  692,  693,  694,  695,  696,  697,  698
  699,  700,  701,  702,  703,  704,  705,  706,  707,  708,  709,  710,  711,  712,  713,  714
  715,  716,  717,  718,  719,  720,  721,  722,  723,  724,  725,  726,  727,  728,  729,  730
  731,  732,  733,  734,  735,  736,  788,  789,  790,  791,  792,  793,  794,  795,  796,  797
  798,  799,  800,  801,  802,  803,  804,  805,  806,  807,  808,  809,  810,  811,  812,  813
  879,  880,  881,  882,  883,  884,  885,  886,  887,  888,  889,  890,  891,  892,  893,  894
** ... 102 like lines cut
*Elset, elset=Set-T-B-Y
     1,    15,    29,    43,    57,    71,    85,    99,   113,   127,   141,   155,   169,   183,   197,   211
   225,   239,   253,   267,   281,   295,   309,   323,   337,   351,   365,   379,   393,   407,   421,   435
   449,   463,   477,   491,   505,   519,   533,   547,   561,   575,   589,   603,   617,   631,   645,   659
   673,   687,   701,   715,   729,   743,   757,   771,   785,   799,   813,   827,   841,   855,   869,   883
   897,   911,   925,   939,   953,   967,   981,   995,  1009,  1023,  1037,  1051,  1065,  1079,  1093,  1107
  1121,  1135,  1149,  1163,  1177,  1191,  1205,  1219,  1233,  1247,  1261,  1275,  1289,  1303,  1317,  1331
  1345,  1359,  1373,  1387,  1401,  1415,  1429,  1443,  1457,  1471,  1485,  1499,  1513,  1527,  1541,  1555
  1569,  1583,  1597,  1611,  1625,  1639,  1653,  1667,  1681,  1695,  1709,  1723,  1737,  1751,  1765,  1779
  1793,  1807,  1821,  1835,  1849,  1863,  1877,  1891,  1905,  1919,  1933,  1947,  1961,  1975,  1989,  2003
  2017,  2031,  2045,  2059,  2073,  2087,  2101,  2115,  2129,  2143,  2157,  2171,  2185,  2199,  2213,  2227
  2241,  2255,  2269,  2283,  2297,  2311,  2325,  2339,  2353,  2367,  2381,  2395,  2409,  2423,  2437,  2451
  2465,  2479,  2493,  2507,  2521,  2535,  2549,  2563,  2577,  2591,  2605,  2619,  2633,  2647,  2661,  2675
  2689,  2703,  2717,  2731,  3081,  3082,  3083,  3084,  3085,  3086,  3087,  3088,  3089,  3090,  3091,  3092
  3093,  3094,  3095,  3096,  3097,  3098,  3099,  3100,  3101,  3102,  3103,  3104,  3105,  3106,  3107,  3108
  3109,  3110,  3111,  3112,  3113,  3114,  3115,  3116,  3117,  3118,  3119,  3120,  3121,  3122,  3123,  3124
  3125,  3126,  3127,  3128,  3129,  3130,  3131,  3132,  3133,  3134,  3135,  3136,  3137,  3138,  3139,  3140
  3141,  3142,  3143,  3144,  3145,  3146,  3147,  3148,  3149,  3150,  3151,  3152,  3153,  3154,  3155,  3156
  3157,  3158,  3159,  3160,  3161,  3162,  3163,  3164,  3165,  3166,  3167,  3168,  3169,  3170,  3171,  3172
  3173,  3174,  3175,  3176,  3177,  3178,  3179,  3180,  3181,  3182,  3183,  3184,  3185,  3186,  3187,  3188
  3189,  3190,  3191,  3192,  3921,  3922,  3923,  3924,  3925,  3926,  3927,  3928,  3929,  3930,  3931,  3932
** ... 93 like lines cut
*Nset, nset=Set-T-YOU-W
    5,   39,   40,   41,   42,   44,   64,   66,  629,  630,  631,  632,  633,  634,  635,  636
  637,  638,  639,  640,  641,  642,  643,  644,  645,  785,  786,  787, 1057, 1058, 1059, 1085
 1086, 1087, 1088, 1089, 1090, 1091, 1092, 6247, 6248, 6249, 6250, 6251, 6252, 6253, 6254, 6255
 6256, 6257, 6258, 6259, 6260, 6261, 6262, 6263, 6264, 6265, 6266, 6267, 6268, 6269, 6270, 6271
 6272, 6273
*Elset, elset=Set-T-YOU-W
  6207,  6208,  6209,  6210,  6211,  6212,  6213,  6214,  6215,  6216, 10612, 10626, 10640, 10654, 10668, 10682
 10696, 10710, 10724, 10738, 10752, 10766, 10780, 10794, 10808, 10822, 10836, 10850, 10864, 10878, 10892, 10906
 10920, 10934, 10948, 10962, 10976, 10990, 11004, 11018, 11032, 11046, 11060, 11074, 11088, 11102, 11116, 11130
 11144, 11158
*Nset, nset=Set-T-YOU-N
   11,   14,   73,   75,  319,  320,  321, 1209, 1210, 1211, 1212, 1213, 1214, 1215, 1216, 1232
 1233, 1234, 1235, 1236, 1237, 1238, 1239, 1240, 1241, 1242, 7389, 7390, 7391, 7392, 7393, 7394
 7395, 7396, 7397, 7398, 7399, 7400, 7401, 7402, 7403, 7404, 7405, 7406, 7407, 7408, 7409, 7410
 7411, 7412
*Elset, elset=Set-T-YOU-N, generate
 14869,  15149,      8
*Nset, nset=Set-T-ZHONG-W
    5,   19,   20,   21,   39,   40,   52,   58,   59,   60,  334,  335,  336,  337,  338,  339
  340,  341,  629,  630,  631,  632,  633,  634,  635,  636,  911,  912,  913,  914,  915,  916
  917,  918,  919,  920,  921,  922,  923,  924,  925,  926,  927,  928,  929,  930,  931,  932
  933,  934,  935,  936,  937,  938,  939,  940,  941,  942, 5143, 5144, 5145, 5146, 5147, 5148
 5149, 5150, 5151, 5152, 5153, 5154, 5155, 5156, 5157, 5158, 5159, 5160, 5161, 5162, 5163, 5164
 5165, 5166, 5167, 5168, 5169, 5170, 5171, 5172, 5173, 5174, 5175, 5176, 5177, 5178, 5179, 5180
 5181, 5182, 5183, 5184, 5185, 5186, 5187, 5188, 5189, 5190, 5191, 5192, 5193, 5194, 5195, 5196
 5197, 5198, 5199, 5200, 5201, 5202, 5203, 5204, 5205
*Elset, elset=Set-T-ZHONG-W
  8237,  8238,  8239,  8240,  8241,  8242,  8243,  8244,  8245,  8246,  8247,  8248,  8249,  8250,  8251,  8252
  8253,  8254,  8255,  8256,  8257,  8258,  8259,  8260,  8261,  8262,  8263,  8264,  8265,  8266,  8267,  8268
  8269,  8270,  8271,  8272,  8273,  8274,  8275,  8276,  8277,  8278,  8279,  8280,  8281,  8282,  8283,  8284
  8285,  8286,  8287,  8288,  8289,  8290,  8291,  8292,  8293,  8294,  8295,  8296,  8297,  8298,  8299,  8300
  8301,  8302,  8303,  8304,  8305,  8306,  8307,  8308,  8309,  8310,  8311,  8312,  8313,  8314,  8315,  8316
  8643,  8644,  8645,  8646,  8647,  8648,  8649,  8650,  8651,  8652, 10459, 10473, 10487, 10501, 10515, 10529
 10543, 10557, 10571, 10585
*Nset, nset=Set-T-ZHONG-N
   10,   11,   72,   73,  246,  247,  248,  249,  250,  251,  252, 1194, 1195, 1196, 1197, 1198
 1199, 1200, 1201, 1202, 1203, 1204, 1205, 1206, 1207, 1208, 1209, 1210, 1211, 1212, 1213, 1214
 1215, 1216, 7277, 7278, 7279, 7280, 7281, 7282, 7283, 7284, 7285, 7286, 7287, 7288, 7289, 7290
 7291, 7292, 7293, 7294, 7295, 7296, 7297, 7298, 7299, 7300, 7301, 7302, 7303, 7304, 7305, 7306
 7307, 7308, 7309, 7310, 7311, 7312, 7313, 7314, 7315, 7316, 7317, 7318, 7319, 7320, 7321, 7322
 7323, 7324, 7325, 7326, 7327, 7328, 7329, 7330, 7331, 7332
*Elset, elset=Set-T-ZHONG-N, generate
 14869,  14940,      1
*Nset, nset=Set-T-ZUO-W
   17,   18,   19,   20,   21,   28,   70,   71,  325,  326,  327,  328,  329,  330,  331,  332
  333,  334,  335,  336,  337,  338,  339,  340,  341,  512,  513,  514, 1174, 1175, 1176, 1177
 1178, 1179, 1180, 1181, 1182, 1183, 1184, 7106, 7107, 7108, 7109, 7110, 7111, 7112, 7113, 7114
 7115, 7116, 7117, 7118, 7119, 7120, 7121, 7122, 7123, 7124, 7125, 7126, 7127, 7128, 7129, 7130
 7131, 7132
*Elset, elset=Set-T-ZUO-W
  3193,  3194,  3195,  3196,  3197,  3198,  3199,  3200,  3201,  3202, 14099, 14113, 14127, 14141, 14155, 14169
 14183, 14197, 14211, 14225, 14239, 14253, 14267, 14281, 14295, 14309, 14323, 14337, 14351, 14365, 14379, 14393
 14407, 14421, 14435, 14449, 14463, 14477, 14491, 14505, 14519, 14533, 14547, 14561, 14575, 14589, 14603, 14617
 14631, 14645
*Nset, nset=Set-T-ZUO-N
   10,   13,   72,   74,  322,  323,  324, 1194, 1195, 1196, 1197, 1198, 1199, 1200, 1201, 1217
 1218, 1219, 1220, 1221, 1222, 1223, 1224, 1243, 1244, 1245, 7413, 7414, 7415, 7416, 7417, 7418
 7419, 7420, 7421, 7422, 7423, 7424, 7425, 7426, 7427, 7428, 7429, 7430, 7431, 7432, 7433, 7434
 7435, 7436
*Elset, elset=Set-T-ZUO-N, generate
 14876,  15156,      8
*Nset, nset=Set-T-D-YOU
  11,  14,  42,  44, 319, 320, 321, 785, 786, 787
*Elset, elset=Set-T-D-YOU, generate
 8667,  8670,     1
*Nset, nset=Set-T-D-ZHONG
   5,  10,  11,  18,  20,  42,  52,  60, 246, 247, 248, 249, 250, 251, 252, 911
 912, 913, 914, 915, 916, 917
*Elset, elset=Set-T-D-ZHONG
  8666,  8883,  8884,  8885,  8886,  8887,  8888,  8889,  8890, 14659
*Nset, nset=Set-T-D-ZUO
  10,  13,  18,  28, 322, 323, 324, 512, 513, 514
*Elset, elset=Set-T-D-ZUO, generate
 8736,  8778,    14
*Nset, nset=_PickedSet28, internal, generate
     1,  19455,      1
*Elset, elset=_PickedSet28, internal, generate
     1,  17116,      1
*Elset, elset=_Surf-T-W_S6, internal
 10459, 10473, 10487, 10501, 10515, 10529, 10543, 10557, 10571, 10585, 14099, 14113, 14127, 14141, 14155, 14169
 14183, 14197, 14211, 14225, 14239, 14253, 14267, 14281, 14295, 14309, 14323, 14337, 14351, 14365, 14379, 14393
 14407, 14421, 14435, 14449, 14463, 14477, 14491, 14505, 14519, 14533, 14547, 14561, 14575, 14589, 14603, 14617
 14631, 14645
*Elset, elset=_Surf-T-W_S1, internal
 6207, 6208, 6209, 6210, 6211, 6212, 6213, 6214, 6215, 6216, 8237, 8238, 8239, 8240, 8241, 8242
 8243, 8244, 8245, 8246, 8247, 8248, 8249, 8250, 8251, 8252, 8253, 8254, 8255, 8256, 8257, 8258
 8259, 8260, 8261, 8262, 8263, 8264, 8265, 8266, 8267, 8268, 8269, 8270, 8271, 8272, 8273, 8274
 8275, 8276, 8277, 8278, 8279, 8280, 8281, 8282, 8283, 8284, 8285, 8286, 8287, 8288, 8289, 8290
 8291, 8292, 8293, 8294, 8295, 8296, 8297, 8298, 8299, 8300, 8301, 8302, 8303, 8304, 8305, 8306
 8307, 8308, 8309, 8310, 8311, 8312, 8313, 8314, 8315, 8316, 8643, 8644, 8645, 8646, 8647, 8648
 8649, 8650, 8651, 8652
*Elset, elset=_Surf-T-W_S4, internal, generate
 10612,  11158,     14
*Elset, elset=_Surf-T-W_S2, internal, generate
 3193,  3202,     1
*Surface, type=ELEMENT, name=Surf-T-W
_Surf-T-W_S6, S6
_Surf-T-W_S1, S1
_Surf-T-W_S4, S4
_Surf-T-W_S2, S2
*Elset, elset=_Surf-T-D_S2, internal
  8667,  8668,  8669,  8670, 14659
*Elset, elset=_Surf-T-D_S1, internal
 8666, 8883, 8884, 8885, 8886, 8887, 8888, 8889, 8890
*Elset, elset=_Surf-T-D_S4, internal, generate
 8736,  8778,    14
*Surface, type=ELEMENT, name=Surf-T-D
_Surf-T-D_S2, S2
_Surf-T-D_S1, S1
_Surf-T-D_S4, S4
*Elset, elset=_Surf-T-N_S4, internal, generate
 14876,  15156,      8
*Elset, elset=_Surf-T-N_S2, internal, generate
 14869,  14940,      1
*Elset, elset=_Surf-T-N_S6, internal, generate
 14869,  15149,      8
*Surface, type=ELEMENT, name=Surf-T-N
_Surf-T-N_S4, S4
_Surf-T-N_S2, S2
_Surf-T-N_S6, S6
*Elset, elset=_Surf-T-UP_S5, internal
 14933, 14934, 14935, 14936, 14937, 14938, 14939, 14940, 15005, 15006, 15007, 15008, 15009, 15010, 15011, 15012
 15077, 15078, 15079, 15080, 15081, 15082, 15083, 15084, 15149, 15150, 15151, 15152, 15153, 15154, 15155, 15156
*Surface, type=ELEMENT, name=Surf-T-UP
_Surf-T-UP_S5, S5
** Section: Section-1SOIL
*Solid Section, elset=_PickedSet28, material=Material-1SOIL
,
*End Part
**  
**
** ASSEMBLY
**
*Assembly, name=Assembly
**  
*Instance, name=SOIL-1, part=SOIL
*End Instance
**  
*Instance, name=FOUNDATION-1, part=FOUNDATION
         50.,           0.,          50.
*End Instance
**  
*Node
      1,          55.,           0.,          60.
*Nset, nset=Set-1RF
 1,
*Nset, nset=Set-2, instance=SOIL-1, generate
     1,  19455,      1
*Nset, nset=Set-2, instance=FOUNDATION-1, generate
   1,  474,    1
*Elset, elset=Set-2, instance=SOIL-1, generate
     1,  17116,      1
*Elset, elset=Set-2, instance=FOUNDATION-1, generate
   1,  212,    1
*Nset, nset=Set-3, instance=SOIL-1, generate
     1,  19455,      1
*Nset, nset=Set-3, instance=FOUNDATION-1, generate
   1,  474,    1
*Elset, elset=Set-3, instance=SOIL-1, generate
     1,  17116,      1
*Elset, elset=Set-3, instance=FOUNDATION-1, generate
   1,  212,    1
** Constraint: Constraint-1
*Rigid Body, ref node=Set-1RF, elset=FOUNDATION-1.Set-FOUNDATION
*End Assembly
** 
** MATERIALS
** 
*Material, name=Material-1SOIL
*Elastic
50000., 0.49
*Mohr Coulomb
0.,0.
*Mohr Coulomb Hardening
50.,0.
*Material, name=Material-2FOUNDATION
*Elastic
 3e+07, 0.15
** 
** INTERACTION PROPERTIES
** 
*Surface Interaction, name=IntProp-1
1.,
*Friction, slip tolerance=0.005, taumax=50.
 0.5,
*Surface Behavior, pressure-overclosure=HARD
** 
** BOUNDARY CONDITIONS
** 
** Name: BC-1 Type: Displacement/Rotation
*Boundary
SOIL-1.Set-T-B-D, 1, 1
SOIL-1.Set-T-B-D, 2, 2
SOIL-1.Set-T-B-D, 3, 3
** Name: BC-2 Type: Displacement/Rotation
*Boundary
SOIL-1.Set-T-B-X, 1, 1
** Name: BC-3 Type: Displacement/Rotation
*Boundary
SOIL-1.Set-T-B-Y, 2, 2
** Name: BC-4 Type: Displacement/Rotation
*Boundary
FOUNDATION-1.Set-F-B-Y, 2, 2
** 
** PREDEFINED FIELDS
** 
** Name: Predefined Field-1   Type: Geostatic stress
*Initial Conditions, type=STRESS, GEOSTATIC
Set-3, 0., 60., -1080., 0., 1., 1.
** 
** INTERACTIONS
** 
** Interaction: Int-1W
*Contact Pair, interaction=IntProp-1, type=SURFACE TO SURFACE
SOIL-1.Surf-T-W, FOUNDATION-1.Surf-F-W
** Interaction: Int-2N
*Contact Pair, interaction=IntProp-1, type=SURFACE TO SURFACE
SOIL-1.Surf-T-N, FOUNDATION-1.Surf-F-N
** Interaction: Int-3UP
*Contact Pair, interaction=IntProp-1, type=SURFACE TO SURFACE
SOIL-1.Surf-T-UP, FOUNDATION-1.Surf-F-UP
** Interaction: Int-4D
*Contact Pair, interaction=IntProp-1, type=SURFACE TO SURFACE
SOIL-1.Surf-T-D, FOUNDATION-1.Surf-F-D
** ----------------------------------------------------------------
** 
** STEP: GEO
** 
*Step, name=GEO, nlgeom=NO
*Geostatic
** 
** LOADS
** 
** Name: Load-1   Type: Body force
*Dload
Set-2, BZ, -18.
** 
** OUTPUT REQUESTS
** 
*Restart, write, frequency=0
** 
** FIELD OUTPUT: F-Output-1
** 
*Output, field
*Node Output
RF, RM, U, UR
*Output, history, frequency=0
*End Step
** ----------------------------------------------------------------
** 
** STEP: LOAD-V
** 
*Step, name=LOAD-V, nlgeom=NO, unsymm=YES
*Static
0.01, 1., 1e-05, 0.02
** 
** LOADS
** 
** Name: Load-2   Type: Concentrated force
*Cload
Set-1RF, 3, -5418.
** 
** OUTPUT REQUESTS
** 
*Restart, write, frequency=0
** 
** FIELD OUTPUT: F-Output-1
** 
*Output, field
*Node Output
RF, RM, U, UR
*Output, history, frequency=0
*End Step
** ----------------------------------------------------------------
** 
** STEP: LOAD-DISP
** 
*Step, name=LOAD-DISP, nlgeom=NO, unsymm=YES
*Static
0.01, 1., 1e-05, 0.02
** 
** BOUNDARY CONDITIONS
** 
** Name: BC-5 Type: Displacement/Rotation
*Boundary
Set-1RF, 1, 1, 0.5
Set-1RF, 5, 5, 0.0384615
** 
** OUTPUT REQUESTS
** 
*Restart, write, frequency=0
** 
** FIELD OUTPUT: F-Output-1
** 
*Output, field
*Node Output
RF, RM, U, UR
*Output, history, frequency=0
*End Step
